Git is a version control system.
Git is free software.
New line.
I struggle for studying git.
