Git is a version control system.
Git is free software distributed under the GPL.
New line.
I struggle for studying git.
