Git is a version control system.
Git is free software distributed under the GPL.
New line.
I struggle for studying git.
Git has a mutable index called stage.
Git tracks changes of files.
My stupid boss still prefers SVN.
